pcf
* control data
             restart      regularization
      2412       767         5       800        23         0
         5         4              single               point         1         0         0          noobsreref
   2.000000E+01  -3.000000E+00   3.000000E-01   1.000000E-02        -7       999          lamforgive        noderforgive
   1.000000E+01   1.000000E+01   1.000000E-03         0         0
   1.000000E-01         1   1.100000E+00               noaui          nosenreuse        noboundscale
        20   1.000000E-02         3        20   1.000000E-02         3   0.000000E+00         1  -1.000000E+00
         0         0         0         0             jcosave          verboserec          jcosaveitn          reisaveitn          parsaveitn        noparsaverun
* singular value decomposition
         1
  10000000    1.000000E-06
1
* parameter groups
r1                      relative              1.0000000000E-02       0.0  switch                2.0000000000E+00       parabolic             1.0000000000E-05      5.0000000000E-01       smaller              
hk                      relative              1.0000000000E-02       0.0  switch                2.0000000000E+00       parabolic             1.0000000000E-05      5.0000000000E-01       smaller              
r0                      relative              1.0000000000E-02       0.0  switch                2.0000000000E+00       parabolic             1.0000000000E-05      5.0000000000E-01       smaller              
w0                      relative              1.0000000000E-02       0.0  switch                2.0000000000E+00       parabolic             1.0000000000E-05      5.0000000000E-01       smaller              
w1                      relative              1.0000000000E-02       0.0  switch                2.0000000000E+00       parabolic             1.0000000000E-05      5.0000000000E-01       smaller
* parameter data
hk_i00_j00             log                    factor                5.0000000000E+00      5.0000000000E-01      5.0000000000E+01       hk                    1.0000000000E+00      0.0000000000E+00      1          
hk_i00_j01             log                    factor                5.0000000000E+00      5.0000000000E-01      5.0000000000E+01       hk                    1.0000000000E+00      0.0000000000E+00      1          
hk_i00_j02             log                    factor                5.0000000000E+00      5.0000000000E-01      5.0000000000E+01       hk                    1.0000000000E+00      0.0000000000E+00      1          
hk_i00_j03             log                    factor                5.0000000000E+00      5.0000000000E-01      5.0000000000E+01       hk                    1.0000000000E+00      0.0000000000E+00      1          
hk_i00_j04             log                    factor                5.0000000000E+00      5.0000000000E-01      5.0000000000E+01       hk                    1.0000000000E+00      0.0000000000E+00      1          
hk_i00_j05             log                    factor                5.0000000000E+00      5.0000000000E-01      5.0000000000E+01       hk                    1.0000000000E+00      0.0000000000E+00      1          
hk_i00_j06             log                    factor                5.0000000000E+00      5.0000000000E-01      5.0000000000E+01       hk                    1.0000000000E+00      0.0000000000E+00      1          
hk_i00_j07             log                    factor                5.0000000000E+00      5.0000000000E-01      5.0000000000E+01       hk                    1.0000000000E+00      0.0000000000E+00      1          
hk_i00_j08             log                    factor                5.0000000000E+00      5.0000000000E-01      5.0000000000E+01       hk                    1.0000000000E+00      0.0000000000E+00      1          
hk_i00_j09             log                    factor                5.0000000000E+00      5.0000000000E-01      5.0000000000E+01       hk                    1.0000000000E+00      0.0000000000E+00      1          
hk_i00_j10             log                    factor                5.0000000000E+00      5.0000000000E-01      5.0000000000E+01       hk                    1.0000000000E+00      0.0000000000E+00      1          
hk_i00_j11             log                    factor                5.0000000000E+00      5.0000000000E-01      5.0000000000E+01       hk                    1.0000000000E+00      0.0000000000E+00      1          
hk_i00_j12             log                    factor                5.0000000000E+00      5.0000000000E-01      5.0000000000E+01       hk                    1.0000000000E+00      0.0000000000E+00      1          
hk_i00_j13             log                    factor                5.0000000000E+00      5.0000000000E-01      5.0000000000E+01       hk                    1.0000000000E+00      0.0000000000E+00      1          
hk_i00_j14             log                    factor                5.0000000000E+00      5.0000000000E-01      5.0000000000E+01       hk                    1.0000000000E+00      0.0000000000E+00      1          
hk_i00_j15             log                    factor                5.0000000000E+00      5.0000000000E-01      5.0000000000E+01       hk                    1.0000000000E+00      0.0000000000E+00      1          
hk_i00_j16             log                    factor                5.0000000000E+00      5.0000000000E-01      5.0000000000E+01       hk                    1.0000000000E+00      0.0000000000E+00      1          
hk_i00_j17             log                    factor                5.0000000000E+00      5.0000000000E-01      5.0000000000E+01       hk                    1.0000000000E+00      0.0000000000E+00      1          
hk_i00_j18             log                    factor                5.0000000000E+00      5.0000000000E-01      5.0000000000E+01       hk                    1.0000000000E+00      0.0000000000E+00      1          
hk_i00_j19             log                    factor                5.0000000000E+00      5.0000000000E-01      5.0000000000E+01       hk                    1.0000000000E+00      0.0000000000E+00      1          
hk_i01_j00             log                    factor                5.0000000000E+00      5.0000000000E-01      5.0000000000E+01       hk                    1.0000000000E+00      0.0000000000E+00      1          
hk_i01_j01             log                    factor                5.0000000000E+00      5.0000000000E-01      5.0000000000E+01       hk                    1.0000000000E+00      0.0000000000E+00      1          
hk_i01_j02             log                    factor                5.0000000000E+00      5.0000000000E-01      5.0000000000E+01       hk                    1.0000000000E+00      0.0000000000E+00      1          
hk_i01_j03             log                    factor                5.0000000000E+00      5.0000000000E-01      5.0000000000E+01       hk                    1.0000000000E+00      0.0000000000E+00      1          
hk_i01_j04             log                    factor                5.0000000000E+00      5.0000000000E-01      5.0000000000E+01       hk                    1.0000000000E+00      0.0000000000E+00      1          
hk_i01_j05             log                    factor                5.0000000000E+00      5.0000000000E-01      5.0000000000E+01       hk                    1.0000000000E+00      0.0000000000E+00      1          
hk_i01_j06             log                    factor                5.0000000000E+00      5.0000000000E-01      5.0000000000E+01       hk                    1.0000000000E+00      0.0000000000E+00      1          
hk_i01_j07             log                    factor                5.0000000000E+00      5.0000000000E-01      5.0000000000E+01       hk                    1.0000000000E+00      0.0000000000E+00      1          
hk_i01_j08             log                    factor                5.0000000000E+00      5.0000000000E-01      5.0000000000E+01       hk                    1.0000000000E+00      0.0000000000E+00      1          
hk_i01_j09             log                    factor                5.0000000000E+00      5.0000000000E-01      5.0000000000E+01       hk                    1.0000000000E+00      0.0000000000E+00      1          
hk_i01_j10             log                    factor                5.0000000000E+00      5.0000000000E-01      5.0000000000E+01       hk                    1.0000000000E+00      0.0000000000E+00      1          
hk_i01_j11             log                    factor                5.0000000000E+00      5.0000000000E-01      5.0000000000E+01       hk                    1.0000000000E+00      0.0000000000E+00      1          
hk_i01_j12             log                    factor                5.0000000000E+00      5.0000000000E-01      5.0000000000E+01       hk                    1.0000000000E+00      0.0000000000E+00      1          
hk_i01_j13             log                    factor                5.0000000000E+00      5.0000000000E-01      5.0000000000E+01       hk                    1.0000000000E+00      0.0000000000E+00      1          
hk_i01_j14             log                    factor                5.0000000000E+00      5.0000000000E-01      5.0000000000E+01       hk                    1.0000000000E+00      0.0000000000E+00      1          
hk_i01_j15             log                    factor                5.0000000000E+00      5.0000000000E-01      5.0000000000E+01       hk                    1.0000000000E+00      0.0000000000E+00      1          
hk_i01_j16             log                    factor                5.0000000000E+00      5.0000000000E-01      5.0000000000E+01       hk                    1.0000000000E+00      0.0000000000E+00      1          
hk_i01_j17             log                    factor                5.0000000000E+00      5.0000000000E-01      5.0000000000E+01       hk                    1.0000000000E+00      0.0000000000E+00      1          
hk_i01_j18             log                    factor                5.0000000000E+00      5.0000000000E-01      5.0000000000E+01       hk                    1.0000000000E+00      0.0000000000E+00      1          
hk_i01_j19             log                    factor                5.0000000000E+00      5.0000000000E-01      5.0000000000E+01       hk                    1.0000000000E+00      0.0000000000E+00      1          
hk_i02_j00             log                    factor                5.0000000000E+00      5.0000000000E-01      5.0000000000E+01       hk                    1.0000000000E+00      0.0000000000E+00      1          
hk_i02_j01             log                    factor                5.0000000000E+00      5.0000000000E-01      5.0000000000E+01       hk                    1.0000000000E+00      0.0000000000E+00      1          
hk_i02_j02             log                    factor                5.0000000000E+00      5.0000000000E-01      5.0000000000E+01       hk                    1.0000000000E+00      0.0000000000E+00      1          
hk_i02_j03             log                    factor                5.0000000000E+00      5.0000000000E-01      5.0000000000E+01       hk                    1.0000000000E+00      0.0000000000E+00      1          
hk_i02_j04             log                    factor                5.0000000000E+00      5.0000000000E-01      5.0000000000E+01       hk                    1.0000000000E+00      0.0000000000E+00      1          
hk_i02_j05             log                    factor                5.0000000000E+00      5.0000000000E-01      5.0000000000E+01       hk                    1.0000000000E+00      0.0000000000E+00      1          
hk_i02_j06             log                    factor                5.0000000000E+00      5.0000000000E-01      5.0000000000E+01       hk                    1.0000000000E+00      0.0000000000E+00      1          
hk_i02_j07             log                    factor                5.0000000000E+00      5.0000000000E-01      5.0000000000E+01       hk                    1.0000000000E+00      0.0000000000E+00      1          
hk_i02_j08             log                    factor                5.0000000000E+00      5.0000000000E-01      5.0000000000E+01       hk                    1.0000000000E+00      0.0000000000E+00      1          
hk_i02_j09             log                    factor                5.0000000000E+00      5.0000000000E-01      5.0000000000E+01       hk                    1.0000000000E+00      0.0000000000E+00      1          
hk_i02_j10             log                    factor                5.0000000000E+00      5.0000000000E-01      5.0000000000E+01       hk                    1.0000000000E+00      0.0000000000E+00      1          
hk_i02_j11             log                    factor                5.0000000000E+00      5.0000000000E-01      5.0000000000E+01       hk                    1.0000000000E+00      0.0000000000E+00      1          
hk_i02_j12             log                    factor                5.0000000000E+00      5.0000000000E-01      5.0000000000E+01       hk                    1.0000000000E+00      0.0000000000E+00      1          
hk_i02_j13             log                    factor                5.0000000000E+00      5.0000000000E-01      5.0000000000E+01       hk                    1.0000000000E+00      0.0000000000E+00      1          
hk_i02_j14             log                    factor                5.0000000000E+00      5.0000000000E-01      5.0000000000E+01       hk                    1.0000000000E+00      0.0000000000E+00      1          
hk_i02_j15             log                    factor                5.0000000000E+00      5.0000000000E-01      5.0000000000E+01       hk                    1.0000000000E+00      0.0000000000E+00      1          
hk_i02_j16             log                    factor                5.0000000000E+00      5.0000000000E-01      5.0000000000E+01       hk                    1.0000000000E+00      0.0000000000E+00      1          
hk_i02_j17             log                    factor                5.0000000000E+00      5.0000000000E-01      5.0000000000E+01       hk                    1.0000000000E+00      0.0000000000E+00      1          
hk_i02_j18             log                    factor                5.0000000000E+00      5.0000000000E-01      5.0000000000E+01       hk                    1.0000000000E+00      0.0000000000E+00      1          
hk_i02_j19             log                    factor                5.0000000000E+00      5.0000000000E-01      5.0000000000E+01       hk                    1.0000000000E+00      0.0000000000E+00      1          
hk_i03_j00             log                    factor                5.0000000000E+00      5.0000000000E-01      5.0000000000E+01       hk                    1.0000000000E+00      0.0000000000E+00      1          
hk_i03_j01             log                    factor                5.0000000000E+00      5.0000000000E-01      5.0000000000E+01       hk                    1.0000000000E+00      0.0000000000E+00      1          
hk_i03_j02             log                    factor                5.0000000000E+00      5.0000000000E-01      5.0000000000E+01       hk                    1.0000000000E+00      0.0000000000E+00      1          
hk_i03_j03             log                    factor                5.0000000000E+00      5.0000000000E-01      5.0000000000E+01       hk                    1.0000000000E+00      0.0000000000E+00      1          
hk_i03_j04             log                    factor                5.0000000000E+00      5.0000000000E-01      5.0000000000E+01       hk                    1.0000000000E+00      0.0000000000E+00      1          
hk_i03_j05             log                    factor                5.0000000000E+00      5.0000000000E-01      5.0000000000E+01       hk                    1.0000000000E+00      0.0000000000E+00      1          
hk_i03_j06             log                    factor                5.0000000000E+00      5.0000000000E-01      5.0000000000E+01       hk                    1.0000000000E+00      0.0000000000E+00      1          
hk_i03_j07             log                    factor                5.0000000000E+00      5.0000000000E-01      5.0000000000E+01       hk                    1.0000000000E+00      0.0000000000E+00      1          
hk_i03_j08             log                    factor                5.0000000000E+00      5.0000000000E-01      5.0000000000E+01       hk                    1.0000000000E+00      0.0000000000E+00      1          
hk_i03_j09             log                    factor                5.0000000000E+00      5.0000000000E-01      5.0000000000E+01       hk                    1.0000000000E+00      0.0000000000E+00      1          
hk_i03_j10             log                    factor                5.0000000000E+00      5.0000000000E-01      5.0000000000E+01       hk                    1.0000000000E+00      0.0000000000E+00      1          
hk_i03_j11             log                    factor                5.0000000000E+00      5.0000000000E-01      5.0000000000E+01       hk                    1.0000000000E+00      0.0000000000E+00      1          
hk_i03_j12             log                    factor                5.0000000000E+00      5.0000000000E-01      5.0000000000E+01       hk                    1.0000000000E+00      0.0000000000E+00      1          
hk_i03_j13             log                    factor                5.0000000000E+00      5.0000000000E-01      5.0000000000E+01       hk                    1.0000000000E+00      0.0000000000E+00      1          
hk_i03_j14             log                    factor                5.0000000000E+00      5.0000000000E-01      5.0000000000E+01       hk                    1.0000000000E+00      0.0000000000E+00      1          
hk_i03_j15             log                    factor                5.0000000000E+00      5.0000000000E-01      5.0000000000E+01       hk                    1.0000000000E+00      0.0000000000E+00      1          
hk_i03_j16             log                    factor                5.0000000000E+00      5.0000000000E-01      5.0000000000E+01       hk                    1.0000000000E+00      0.0000000000E+00      1          
hk_i03_j17             log                    factor                5.0000000000E+00      5.0000000000E-01      5.0000000000E+01       hk                    1.0000000000E+00      0.0000000000E+00      1          
hk_i03_j18             log                    factor                5.0000000000E+00      5.0000000000E-01      5.0000000000E+01       hk                    1.0000000000E+00      0.0000000000E+00      1          
hk_i03_j19             log                    factor                5.0000000000E+00      5.0000000000E-01      5.0000000000E+01       hk                    1.0000000000E+00      0.0000000000E+00      1          
hk_i04_j00             log                    factor                5.0000000000E+00      5.0000000000E-01      5.0000000000E+01       hk                    1.0000000000E+00      0.0000000000E+00      1          
hk_i04_j01             log                    factor                5.0000000000E+00      5.0000000000E-01      5.0000000000E+01       hk                    1.0000000000E+00      0.0000000000E+00      1          
hk_i04_j02             log                    factor                5.0000000000E+00      5.0000000000E-01      5.0000000000E+01       hk                    1.0000000000E+00      0.0000000000E+00      1          
hk_i04_j03             log                    factor                5.0000000000E+00      5.0000000000E-01      5.0000000000E+01       hk                    1.0000000000E+00      0.0000000000E+00      1          
hk_i04_j04             log                    factor                5.0000000000E+00      5.0000000000E-01      5.0000000000E+01       hk                    1.0000000000E+00      0.0000000000E+00      1          
hk_i04_j05             log                    factor                5.0000000000E+00      5.0000000000E-01      5.0000000000E+01       hk                    1.0000000000E+00      0.0000000000E+00      1          
hk_i04_j06             log                    factor                5.0000000000E+00      5.0000000000E-01      5.0000000000E+01       hk                    1.0000000000E+00      0.0000000000E+00      1          
hk_i04_j07             log                    factor                5.0000000000E+00      5.0000000000E-01      5.0000000000E+01       hk                    1.0000000000E+00      0.0000000000E+00      1          
hk_i04_j08             log                    factor                5.0000000000E+00      5.0000000000E-01      5.0000000000E+01       hk                    1.0000000000E+00      0.0000000000E+00      1          
hk_i04_j09             log                    factor                5.0000000000E+00      5.0000000000E-01      5.0000000000E+01       hk                    1.0000000000E+00      0.0000000000E+00      1          
hk_i04_j10             log                    factor                5.0000000000E+00      5.0000000000E-01      5.0000000000E+01       hk                    1.0000000000E+00      0.0000000000E+00      1          
hk_i04_j11             log                    factor                5.0000000000E+00      5.0000000000E-01      5.0000000000E+01       hk                    1.0000000000E+00      0.0000000000E+00      1          
hk_i04_j12             log                    factor                5.0000000000E+00      5.0000000000E-01      5.0000000000E+01       hk                    1.0000000000E+00      0.0000000000E+00      1          
hk_i04_j13             log                    factor                5.0000000000E+00      5.0000000000E-01      5.0000000000E+01       hk                    1.0000000000E+00      0.0000000000E+00      1          
hk_i04_j14             log                    factor                5.0000000000E+00      5.0000000000E-01      5.0000000000E+01       hk                    1.0000000000E+00      0.0000000000E+00      1          
hk_i04_j15             log                    factor                5.0000000000E+00      5.0000000000E-01      5.0000000000E+01       hk                    1.0000000000E+00      0.0000000000E+00      1          
hk_i04_j16             log                    factor                5.0000000000E+00      5.0000000000E-01      5.0000000000E+01       hk                    1.0000000000E+00      0.0000000000E+00      1          
hk_i04_j17             log                    factor                5.0000000000E+00      5.0000000000E-01      5.0000000000E+01       hk                    1.0000000000E+00      0.0000000000E+00      1          
hk_i04_j18             log                    factor                5.0000000000E+00      5.0000000000E-01      5.0000000000E+01       hk                    1.0000000000E+00      0.0000000000E+00      1          
hk_i04_j19             log                    factor                5.0000000000E+00      5.0000000000E-01      5.0000000000E+01       hk                    1.0000000000E+00      0.0000000000E+00      1          
hk_i05_j00             log                    factor                5.0000000000E+00      5.0000000000E-01      5.0000000000E+01       hk                    1.0000000000E+00      0.0000000000E+00      1          
hk_i05_j01             log                    factor                5.0000000000E+00      5.0000000000E-01      5.0000000000E+01       hk                    1.0000000000E+00      0.0000000000E+00      1          
hk_i05_j02             log                    factor                5.0000000000E+00      5.0000000000E-01      5.0000000000E+01       hk                    1.0000000000E+00      0.0000000000E+00      1          
hk_i05_j03             log                    factor                5.0000000000E+00      5.0000000000E-01      5.0000000000E+01       hk                    1.0000000000E+00      0.0000000000E+00      1          
hk_i05_j04             log                    factor                5.0000000000E+00      5.0000000000E-01      5.0000000000E+01       hk                    1.0000000000E+00      0.0000000000E+00      1          
hk_i05_j05             log                    factor                5.0000000000E+00      5.0000000000E-01      5.0000000000E+01       hk                    1.0000000000E+00      0.0000000000E+00      1          
hk_i05_j06             log                    factor                5.0000000000E+00      5.0000000000E-01      5.0000000000E+01       hk                    1.0000000000E+00      0.0000000000E+00      1          
hk_i05_j07             log                    factor                5.0000000000E+00      5.0000000000E-01      5.0000000000E+01       hk                    1.0000000000E+00      0.0000000000E+00      1          
hk_i05_j08             log                    factor                5.0000000000E+00      5.0000000000E-01      5.0000000000E+01       hk                    1.0000000000E+00      0.0000000000E+00      1          
hk_i05_j09             log                    factor                5.0000000000E+00      5.0000000000E-01      5.0000000000E+01       hk                    1.0000000000E+00      0.0000000000E+00      1          
hk_i05_j10             log                    factor                5.0000000000E+00      5.0000000000E-01      5.0000000000E+01       hk                    1.0000000000E+00      0.0000000000E+00      1          
hk_i05_j11             log                    factor                5.0000000000E+00      5.0000000000E-01      5.0000000000E+01       hk                    1.0000000000E+00      0.0000000000E+00      1          
hk_i05_j12             log                    factor                5.0000000000E+00      5.0000000000E-01      5.0000000000E+01       hk                    1.0000000000E+00      0.0000000000E+00      1          
hk_i05_j13             log                    factor                5.0000000000E+00      5.0000000000E-01      5.0000000000E+01       hk                    1.0000000000E+00      0.0000000000E+00      1          
hk_i05_j14             log                    factor                5.0000000000E+00      5.0000000000E-01      5.0000000000E+01       hk                    1.0000000000E+00      0.0000000000E+00      1          
hk_i05_j15             log                    factor                5.0000000000E+00      5.0000000000E-01      5.0000000000E+01       hk                    1.0000000000E+00      0.0000000000E+00      1          
hk_i05_j16             log                    factor                5.0000000000E+00      5.0000000000E-01      5.0000000000E+01       hk                    1.0000000000E+00      0.0000000000E+00      1          
hk_i05_j17             log                    factor                5.0000000000E+00      5.0000000000E-01      5.0000000000E+01       hk                    1.0000000000E+00      0.0000000000E+00      1          
hk_i05_j18             log                    factor                5.0000000000E+00      5.0000000000E-01      5.0000000000E+01       hk                    1.0000000000E+00      0.0000000000E+00      1          
hk_i05_j19             log                    factor                5.0000000000E+00      5.0000000000E-01      5.0000000000E+01       hk                    1.0000000000E+00      0.0000000000E+00      1          
hk_i06_j00             log                    factor                5.0000000000E+00      5.0000000000E-01      5.0000000000E+01       hk                    1.0000000000E+00      0.0000000000E+00      1          
hk_i06_j01             log                    factor                5.0000000000E+00      5.0000000000E-01      5.0000000000E+01       hk                    1.0000000000E+00      0.0000000000E+00      1          
hk_i06_j02             log                    factor                5.0000000000E+00      5.0000000000E-01      5.0000000000E+01       hk                    1.0000000000E+00      0.0000000000E+00      1          
hk_i06_j03             log                    factor                5.0000000000E+00      5.0000000000E-01      5.0000000000E+01       hk                    1.0000000000E+00      0.0000000000E+00      1          
hk_i06_j04             log                    factor                5.0000000000E+00      5.0000000000E-01      5.0000000000E+01       hk                    1.0000000000E+00      0.0000000000E+00      1          
hk_i06_j05             log                    factor                5.0000000000E+00      5.0000000000E-01      5.0000000000E+01       hk                    1.0000000000E+00      0.0000000000E+00      1          
hk_i06_j06             log                    factor                5.0000000000E+00      5.0000000000E-01      5.0000000000E+01       hk                    1.0000000000E+00      0.0000000000E+00      1          
hk_i06_j07             log                    factor                5.0000000000E+00      5.0000000000E-01      5.0000000000E+01       hk                    1.0000000000E+00      0.0000000000E+00      1          
hk_i06_j08             log                    factor                5.0000000000E+00      5.0000000000E-01      5.0000000000E+01       hk                    1.0000000000E+00      0.0000000000E+00      1          
hk_i06_j09             log                    factor                5.0000000000E+00      5.0000000000E-01      5.0000000000E+01       hk                    1.0000000000E+00      0.0000000000E+00      1          
hk_i06_j10             log                    factor                5.0000000000E+00      5.0000000000E-01      5.0000000000E+01       hk                    1.0000000000E+00      0.0000000000E+00      1          